<?xml version="1.0" encoding="UTF-8"?>

<!-- generated on 2021-11-19 13:54:52 by Eclipse SUMO netedit Version 1.10.0
<configuration xmlns:xsi="http://www.w3.org/2001/XMLSchema-instance" xsi:noNamespaceSchemaLocation="http://sumo.dlr.de/xsd/netconvertConfiguration.xsd">

    <input>
        <sumo-net-file value="/home/alex/Documents/Documents/4.%20Tehnical/SUMO/All%20Sumo/Creanga%20Chisinau/Creanga%20bus%20lane/creanga.net.xml"/>
    </input>

    <output>
        <output-file value="/home/alex/Documents/Documents/4.%20Tehnical/SUMO/All%20Sumo/Creanga%20Chisinau/Creanga%20bus%20lane/creanga.net.xml"/>
    </output>

    <processing>
        <geometry.min-radius.fix.railways value="false"/>
        <geometry.max-grade.fix value="false"/>
        <offset.disable-normalization value="true"/>
        <lefthand value="false"/>
    </processing>

    <junctions>
        <no-turnarounds value="true"/>
        <junctions.corner-detail value="5"/>
        <junctions.limit-turn-speed value="5.5"/>
        <rectangular-lane-cut value="false"/>
    </junctions>

    <pedestrian>
        <walkingareas value="false"/>
    </pedestrian>

    <netedit>
        <route-files value="/home/alex/Documents/Documents/4.%20Tehnical/SUMO/All%20Sumo/Creanga%20Chisinau/Creanga%20bus%20lane/creanga2.rou.xml"/>
    </netedit>

    <report>
        <aggregate-warnings value="5"/>
    </report>

</configuration>
-->

<routes xmlns:xsi="http://www.w3.org/2001/XMLSchema-instance" xsi:noNamespaceSchemaLocation="http://sumo.dlr.de/xsd/routes_file.xsd">
    <flow id="flow_10" begin="0.00" from="236319211" to="-236319240" via="25589161" end="3600.00" number="1800"/>
</routes>
