<?xml version="1.0" encoding="UTF-8"?>

<!-- generated on 2021-11-19 09:53:31 by Eclipse SUMO netedit Version 1.10.0
<configuration xmlns:xsi="http://www.w3.org/2001/XMLSchema-instance" xsi:noNamespaceSchemaLocation="http://sumo.dlr.de/xsd/netconvertConfiguration.xsd">

    <input>
        <sumo-net-file value="/home/alex/Documents/Documents/4.%20Tehnical/SUMO/All%20Sumo/Creanga%20Chisinau/creanga.net.xml"/>
    </input>

    <output>
        <output-file value="/home/alex/Documents/Documents/4.%20Tehnical/SUMO/All%20Sumo/Creanga%20Chisinau/creanga.net.xml"/>
    </output>

    <processing>
        <geometry.min-radius.fix.railways value="false"/>
        <geometry.max-grade.fix value="false"/>
        <offset.disable-normalization value="true"/>
        <lefthand value="false"/>
    </processing>

    <junctions>
        <no-turnarounds value="true"/>
        <junctions.corner-detail value="5"/>
        <junctions.limit-turn-speed value="5.5"/>
        <rectangular-lane-cut value="false"/>
    </junctions>

    <pedestrian>
        <walkingareas value="false"/>
    </pedestrian>

    <netedit>
        <route-files value="/home/alex/Documents/Documents/4.%20Tehnical/SUMO/All%20Sumo/Creanga%20Chisinau/creanga.rou.xml"/>
    </netedit>

    <report>
        <aggregate-warnings value="5"/>
    </report>

</configuration>
-->

<routes xmlns:xsi="http://www.w3.org/2001/XMLSchema-instance" xsi:noNamespaceSchemaLocation="http://sumo.dlr.de/xsd/routes_file.xsd">
    <vType id="vType_0" vClass="bus" color="red"/>
    <flow id="flow_0" begin="0.00" from="24848588" to="24778324#1" via="-660884121#0" end="3600.00" number="1800"/>
    <flow id="flow_1" begin="0.00" from="-82544224#2" to="-808581712#1" via="-660884121#0" end="3600.00" number="1800"/>
    <flow id="flow_2" begin="0.00" from="33080374#4" to="-94716590#5" end="3600.00" number="1800"/>
    <flow id="flow_3" begin="0.00" from="762343219#0" to="-808581712#1" end="3600.00" number="1800"/>
    <flow id="flow_4" begin="0.00" from="236319240" to="24778324#2" end="3600.00" number="1800"/>
    <flow id="flow_5" type="vType_0" begin="0.00" from="-24848589#3" to="-808581712#1" via="-660167557 -660478861 -236319217#1" end="3600.00" number="50"/>
</routes>
